
**** 02/06/22 15:01:52 ******* PSpice Lite (March 2016) ******* ID# 10813 ****

 ** Profile: "SCHEMATIC1-REX_ALPHA_REVA"  [ c:\users\sandr\onedrive\desktop\pspice\senior design\rex\1\rex_beta_rev_a-PSpiceFiles\SCH


 ****     CIRCUIT DESCRIPTION


******************************************************************************




** Creating circuit file "REX_ALPHA_REVA.cir" 
** WARNING: THIS AUTOMATICALLY GENERATED FILE MAY BE OVERWRITTEN BY SUBSEQUENT SIMULATIONS

*Libraries: 
* Profile Libraries :
* Local Libraries :
* From [PSPICE NETLIST] section of C:\SPB_Data\cdssetup\OrCAD_PSpice\17.2.0\PSpice.ini file:
.lib "nomd.lib" 

*Analysis directives: 
.TRAN  0 1000ns 0 
.OPTIONS ADVCONV
.PROBE64 V(alias(*)) I(alias(*)) W(alias(*)) D(alias(*)) NOISE(alias(*)) 
.INC "..\SCHEMATIC1.net" 



**** INCLUDING SCHEMATIC1.net ****
* source REX_BETA_REV_A
R_R1         N01729 N01543  12k TC=0,0 
R_R2         GND N01729  50 TC=0,0 
V_V2         N01773 GND 5V
V_V3         N01793 GND 5V
C_C1         N01729 N01543  0.6p  TC=0,0 
R_R3         GND N01729  10k TC=0,0 
V_V1         N01543 GND  AC 0
+SIN 0 0.05 1k 0 0 0
V_V4         N01591 GND 5V
C_C2         N02617 N02599  22nF  TC=0,0 
C_C4         N03331 N03349  0.1u  TC=0,0 
C_C5         N03312 N03324  0.1u  TC=0,0 
R_R4         0 N03349  50 TC=0,0 
R_R5         0 N03324  50 TC=0,0 
V_V7         N02781 0 5V
V_V8         N02617 0  AC 0
+SIN 0 0.05 1k 0 0 0

**** RESUMING REX_ALPHA_REVA.cir ****
.END

ERROR(ORPSIM-15141): Less than 2 connections at node N02599.

ERROR(ORPSIM-15141): Less than 2 connections at node N03331.

ERROR(ORPSIM-15141): Less than 2 connections at node N03312.

ERROR(ORPSIM-15142): Node N01729 is floating

ERROR(ORPSIM-15142): Node N01543 is floating

ERROR(ORPSIM-15142): Node GND is floating

ERROR(ORPSIM-15142): Node N01773 is floating

ERROR(ORPSIM-15142): Node N01793 is floating

ERROR(ORPSIM-15142): Node N01591 is floating

ERROR(ORPSIM-15142): Node N02599 is floating

ERROR(ORPSIM-15142): Node N03331 is floating

ERROR(ORPSIM-15142): Node N03312 is floating
